Version 4
SHEET 1 880 680
SYMBOL Digital\\and 160 96 R0
SYMATTR InstName A1
