Version 4
SHEET 1 996 680
WIRE -32 -48 -64 -48
WIRE 224 -48 48 -48
WIRE 224 -16 224 -48
WIRE 720 -16 224 -16
WIRE -64 0 -64 -48
WIRE 224 32 224 -16
WIRE 224 32 112 32
WIRE 352 32 224 32
WIRE 112 80 112 32
WIRE 352 80 352 32
WIRE 64 160 -112 160
WIRE 304 160 208 160
WIRE 208 208 208 160
WIRE 208 208 32 208
WIRE 720 208 720 -16
WIRE 112 256 112 176
WIRE 240 256 112 256
WIRE 352 256 352 176
WIRE 352 256 240 256
WIRE 672 288 544 288
WIRE -224 304 -256 304
WIRE -112 304 -112 160
WIRE -112 304 -144 304
WIRE 240 304 240 256
WIRE 544 304 544 288
WIRE 544 304 240 304
WIRE -256 320 -256 304
WIRE 240 336 240 304
WIRE 720 352 720 304
WIRE 800 352 720 352
WIRE 976 352 944 352
WIRE 976 368 976 352
WIRE 720 384 720 352
WIRE -112 432 -112 304
WIRE 192 432 -112 432
WIRE 544 464 544 304
WIRE 672 464 544 464
WIRE 240 496 240 432
WIRE 32 576 32 208
WIRE 192 576 32 576
WIRE 240 624 240 592
FLAG 240 624 0
FLAG 976 368 0
FLAG 720 480 0
FLAG -64 0 0
FLAG -256 320 0
FLAG 32 656 0
SYMBOL pmos 64 80 R0
SYMATTR InstName M1
SYMBOL pmos 304 80 R0
SYMATTR InstName M2
SYMBOL nmos 192 336 R0
SYMATTR InstName M3
SYMBOL nmos 192 496 R0
SYMATTR InstName M4
SYMBOL voltage 64 -48 R90
WINDOW 0 -32 56 VBottom 2
WINDOW 3 32 56 VTop 2
SYMATTR InstName V1
SYMBOL pmos 672 208 R0
SYMATTR InstName M5
SYMBOL nmos 672 384 R0
SYMATTR InstName M6
SYMBOL res 896 336 R90
WINDOW 0 0 56 VBottom 2
WINDOW 3 32 56 VTop 2
SYMATTR InstName R1
SYMBOL LED 880 368 R270
WINDOW 0 72 32 VTop 2
WINDOW 3 0 32 VBottom 2
SYMATTR InstName D1
SYMBOL voltage -128 304 R90
WINDOW 0 -32 56 VBottom 2
WINDOW 3 32 56 VTop 2
SYMATTR InstName V2
SYMBOL voltage 32 560 R0
SYMATTR InstName V3
